simulator lang=spectre
//
// Variables
parameters VCC = 1.8
parameters STEP = 10u
parameters T_RF = 10p
//
// Other stuff
vcc (vdd! 0) vsource dc=VCC
//
a0 (A 0) vsource type=pulse val0=VCC val1=0 delay=0 rise=T_RF fall=T_RF width=STEP period=2*STEP
b0 (B 0) vsource type=pulse val0=VCC val1=0 delay=0 rise=T_RF fall=T_RF width=2*STEP period=4*STEP
Cin (Ci 0) vsource type=pulse val0=VCC val1=0 delay=0 rise=T_RF fall=T_RF width=4*STEP period=8*STEP

