// Generated for: spectre
// Generated on: Oct 26 19:35:20 2013
// Design library name: 0_Tutorial
// Design cell name: cmos_inv_tb
// Design view name: schematic
simulator lang=spectre
global 0 vdd!
